<NUMBER OF NODES> 	14478
<NUMBER OF LINKS> 	54838
<END OF METADATA>		


~ 	init 	term 	: 	flow 	cost 	; 
	1 	6152 	: 	0 	4.84691 	; 
	1 	11499 	: 	0 	inf 	; 
	2 	2658 	: 	1966.34 	17.0176 	; 
	2 	4392 	: 	0 	inf 	; 
	2 	12829 	: 	0 	inf 	; 
	2 	12830 	: 	18 	427.36 	; 
	2 	12837 	: 	0 	inf 	; 
	2 	12838 	: 	146 	187.617 	; 
	3 	1188 	: 	0 	inf 	; 
	3 	9597 	: 	0 	22.4627 	; 
	4 	29 	: 	0 	2.60631 	; 
	4 	3964 	: 	0 	inf 	; 
	5 	6262 	: 	0 	inf 	; 
	5 	11458 	: 	3254.03 	5.56598 	; 
	6 	1133 	: 	0 	inf 	; 
	6 	10460 	: 	9129.33 	2.54017 	; 
	6 	12569 	: 	0 	inf 	; 
	6 	12570 	: 	404.667 	194.655 	; 
	7 	3698 	: 	450.667 	5.16847 	; 
	7 	6024 	: 	0 	inf 	; 
	7 	7307 	: 	1916 	10.4563 	; 
	8 	180 	: 	0 	inf 	; 
	8 	5792 	: 	642 	5.07346 	; 
	9 	6072 	: 	0 	inf 	; 
	9 	9096 	: 	14425.3 	2.27778 	; 
	9 	12873 	: 	0 	inf 	; 
	9 	12874 	: 	358.667 	74.7282 	; 
	10 	5311 	: 	0 	inf 	; 
	10 	10449 	: 	0 	inf 	; 
	10 	11400 	: 	22843.3 	126.374 	; 
	10 	13081 	: 	0 	inf 	; 
	10 	13082 	: 	129.333 	187.021 	; 
	10 	13131 	: 	0 	inf 	; 
	10 	13132 	: 	66.6667 	382.372 	; 
	11 	2795 	: 	0 	1.70113 	; 
	11 	8807 	: 	0 	inf 	; 
	12 	3838 	: 	0 	inf 	; 
	12 	5743 	: 	266.457 	3.93068 	; 
	12 	13279 	: 	0 	inf 	; 
	12 	13280 	: 	0 	48.5873 	; 
	13 	15 	: 	0 	inf 	; 
	13 	8569 	: 	11254.7 	31.876 	; 
	13 	13647 	: 	0 	inf 	; 
	13 	13648 	: 	0 	24.8923 	; 
	14 	1173 	: 	16583.3 	42.8615 	; 
	14 	7321 	: 	0 	inf 	; 
	15 	13 	: 	11254.7 	12.9746 	; 
	15 	2972 	: 	5571.38 	14.4492 	; 
	15 	4878 	: 	0 	inf 	; 
	16 	408 	: 	0 	inf 	; 
	16 	9694 	: 	1032 	6.74975 	; 
	17 	1766 	: 	22519 	36.0173 	; 
	17 	4254 	: 	0 	inf 	; 
	17 	12677 	: 	0 	inf 	; 
	17 	12678 	: 	0 	95.4564 	; 
	17 	12729 	: 	0 	inf 	; 
	17 	12730 	: 	0 	108.814 	; 
	18 	2571 	: 	0 	43.4727 	; 
	18 	8457 	: 	0 	inf 	; 
	19 	1191 	: 	23208.8 	805.499 	; 
	19 	7598 	: 	0 	inf 	; 
	19 	11945 	: 	0 	inf 	; 
	19 	11946 	: 	0 	161.125 	; 
	20 	391 	: 	2369.33 	45.0019 	; 
	20 	10946 	: 	0 	inf 	; 
	20 	12233 	: 	0 	inf 	; 
	20 	12234 	: 	1078 	38.2275 	; 
	20 	12247 	: 	0 	inf 	; 
	20 	12248 	: 	7.33333 	144.966 	; 
	21 	1179 	: 	10706.4 	102.332 	; 
	21 	1595 	: 	0 	inf 	; 
	21 	13503 	: 	0 	inf 	; 
	21 	13504 	: 	196 	84.8277 	; 
	21 	13541 	: 	0 	inf 	; 
	21 	13542 	: 	85.3333 	95.2548 	; 
	21 	13543 	: 	0 	inf 	; 
	21 	13544 	: 	106.667 	126.014 	; 
	22 	1135 	: 	2511.92 	2.10694 	; 
	22 	9412 	: 	0 	inf 	; 
	23 	5367 	: 	3308.67 	28.1367 	; 
	23 	9286 	: 	0 	32.3419 	; 
	23 	10796 	: 	0 	inf 	; 
	24 	3555 	: 	0 	inf 	; 
	24 	8039 	: 	17118.7 	33.6064 	; 
	25 	523 	: 	0 	inf 	; 
	25 	7101 	: 	2117.69 	22.8325 	; 
	25 	10383 	: 	6188.95 	26.3679 	; 
	25 	12377 	: 	0 	inf 	; 
	25 	12378 	: 	2302 	111.476 	; 
	25 	12415 	: 	0 	inf 	; 
	25 	12416 	: 	246.667 	56.77 	; 
	26 	2538 	: 	0 	inf 	; 
	26 	8890 	: 	6707.3 	7.56855 	; 
	26 	13321 	: 	0 	inf 	; 
	26 	13322 	: 	771.333 	35.3831 	; 
	27 	6523 	: 	3866.67 	16.9927 	; 
	27 	10890 	: 	0 	inf 	; 
	28 	349 	: 	0 	inf 	; 
	28 	7314 	: 	0 	3.20515 	; 
	29 	4 	: 	0 	inf 	; 
	29 	9527 	: 	0 	28.6385 	; 
	30 	2977 	: 	0 	1.42739 	; 
	30 	6088 	: 	0 	inf 	; 
	31 	2816 	: 	10843.1 	3.68225 	; 
	31 	4943 	: 	0 	inf 	; 
	31 	9542 	: 	2311.33 	7.17331 	; 
	32 	3443 	: 	0 	inf 	; 
	32 	6088 	: 	0 	1.3628 	; 
	33 	4451 	: 	25711.3 	211.015 	; 
	33 	11186 	: 	0 	inf 	; 
	33 	11997 	: 	0 	inf 	; 
	33 	11998 	: 	0 	140.417 	; 
	34 	4600 	: 	0 	inf 	; 
	34 	5114 	: 	14392.7 	26.4672 	; 
	34 	6390 	: 	1631.03 	24.2017 	; 
	34 	13737 	: 	0 	inf 	; 
	34 	13738 	: 	0 	168.919 	; 
	35 	3616 	: 	0 	inf 	; 
	35 	7918 	: 	8836.2 	2.96562 	; 
	36 	3728 	: 	92 	1.21679 	; 
	36 	11243 	: 	0 	inf 	; 
	37 	563 	: 	0 	inf 	; 
	37 	6714 	: 	0 	9.52634 	; 
	38 	2843 	: 	0 	31.5038 	; 
	38 	2847 	: 	0 	inf 	; 
	39 	1310 	: 	0 	inf 	; 
	39 	9143 	: 	2103.96 	5.64531 	; 
	39 	12425 	: 	0 	inf 	; 
	39 	12426 	: 	0 	66.675 	; 
	40 	4867 	: 	4758.88 	1.70813 	; 
	40 	10261 	: 	0 	inf 	; 
	41 	8406 	: 	16273.1 	7.40779 	; 
	41 	9794 	: 	0 	inf 	; 
	42 	1106 	: 	0 	inf 	; 
	42 	3709 	: 	5294.79 	100.08 	; 
	42 	11436 	: 	4000 	54.4884 	; 
	43 	4057 	: 	20657.5 	91.7121 	; 
	43 	7159 	: 	4112.05 	61.6602 	; 
	43 	9506 	: 	0 	inf 	; 
	43 	14419 	: 	0 	inf 	; 
	43 	14420 	: 	0 	209.443 	; 
	44 	4057 	: 	0 	inf 	; 
	44 	7528 	: 	0 	inf 	; 
	44 	7799 	: 	24310.3 	219.352 	; 
	44 	14431 	: 	0 	inf 	; 
	44 	14432 	: 	321.333 	217.73 	; 
	44 	14433 	: 	0 	inf 	; 
	44 	14434 	: 	132 	515.871 	; 
	45 	1616 	: 	0 	inf 	; 
	45 	8739 	: 	0 	inf 	; 
	45 	9558 	: 	22116.9 	241.282 	; 
	46 	2979 	: 	3083.95 	25.2139 	; 
	46 	8221 	: 	19033 	26.0112 	; 
	46 	9562 	: 	0 	inf 	; 
	47 	4865 	: 	0 	inf 	; 
	47 	6270 	: 	15110.5 	87.24 	; 
	47 	13283 	: 	0 	inf 	; 
	47 	13284 	: 	686.667 	137.847 	; 
	48 	8239 	: 	0 	2.77694 	; 
	48 	9795 	: 	0 	121.367 	; 
	49 	5463 	: 	0 	inf 	; 
	49 	5464 	: 	18991.8 	169.862 	; 
	49 	12695 	: 	0 	inf 	; 
	49 	12696 	: 	21.3333 	79.3833 	; 
	50 	594 	: 	12696 	1495.35 	; 
	50 	6354 	: 	0 	inf 	; 
	50 	12301 	: 	0 	inf 	; 
	50 	12302 	: 	47.3333 	297.501 	; 
	50 	12303 	: 	0 	inf 	; 
	50 	12304 	: 	12.6667 	323.721 	; 
	50 	12305 	: 	0 	inf 	; 
	50 	12306 	: 	11.3333 	178.652 	; 
	51 	5298 	: 	5386 	427.786 	; 
	51 	5365 	: 	0 	inf 	; 
	51 	12727 	: 	0 	inf 	; 
	51 	12728 	: 	7.33333 	135.703 	; 
	51 	12741 	: 	0 	inf 	; 
	51 	12742 	: 	110.667 	58.4228 	; 
	51 	12743 	: 	0 	inf 	; 
	51 	12744 	: 	109.333 	143.035 	; 
	52 	186 	: 	2315.58 	17.8187 	; 
	52 	3359 	: 	0 	inf 	; 
	53 	5424 	: 	0 	inf 	; 
	53 	5426 	: 	1613.53 	2.48987 	; 
	54 	299 	: 	92 	15.787 	; 
	54 	856 	: 	0 	inf 	; 
	55 	4029 	: 	0 	inf 	; 
	55 	5413 	: 	9198.55 	26.626 	; 
	56 	5934 	: 	0 	inf 	; 
	56 	7709 	: 	18112 	7.89995 	; 
	56 	13817 	: 	0 	inf 	; 
	56 	13818 	: 	850.667 	70.5389 	; 
	57 	468 	: 	17796.6 	4.23442 	; 
	57 	3354 	: 	0 	inf 	; 
	58 	2782 	: 	0 	inf 	; 
	58 	5237 	: 	4102 	1.80392 	; 
	59 	1884 	: 	10952.1 	21.2395 	; 
	59 	9025 	: 	0 	inf 	; 
	59 	12389 	: 	0 	inf 	; 
	59 	12390 	: 	1200.67 	114.044 	; 
	60 	2218 	: 	0 	inf 	; 
	60 	9256 	: 	2059.39 	3.57437 	; 
	61 	639 	: 	0 	inf 	; 
	61 	5033 	: 	4462.67 	19.1355 	; 
	62 	1083 	: 	20504.7 	160.369 	; 
	62 	5346 	: 	0 	inf 	; 
	62 	9585 	: 	0 	inf 	; 
	63 	5332 	: 	4421.33 	5.49281 	; 
	63 	5914 	: 	0 	inf 	; 
	64 	3350 	: 	0 	inf 	; 
	64 	6272 	: 	4702.69 	37.5323 	; 
	64 	11178 	: 	9112.64 	19.1691 	; 
	65 	7890 	: 	12852.2 	93.8647 	; 
	65 	10471 	: 	0 	inf 	; 
	66 	1010 	: 	0 	123.955 	; 
	66 	11121 	: 	0 	inf 	; 
	67 	1333 	: 	0 	inf 	; 
	67 	1336 	: 	0 	6.5614 	; 
	68 	940 	: 	0 	inf 	; 
	68 	1239 	: 	0 	inf 	; 
	68 	2669 	: 	12261.5 	32.11 	; 
	69 	2772 	: 	5343.75 	1.4115 	; 
	69 	7572 	: 	4421.33 	3.37029 	; 
	70 	6384 	: 	0 	28.3463 	; 
	70 	6929 	: 	0 	inf 	; 
	71 	7973 	: 	0 	inf 	; 
	71 	11253 	: 	16529.1 	53.3813 	; 
	72 	1648 	: 	0 	inf 	; 
	72 	5705 	: 	3475.33 	5.24663 	; 
	72 	10061 	: 	3422.53 	1.49722 	; 
	72 	14077 	: 	0 	inf 	; 
	72 	14078 	: 	178 	792.05 	; 
	72 	14079 	: 	0 	inf 	; 
	72 	14080 	: 	362 	618.3 	; 
	72 	14087 	: 	0 	inf 	; 
	72 	14088 	: 	476.667 	283.116 	; 
	72 	14097 	: 	0 	inf 	; 
	72 	14098 	: 	614.667 	175.943 	; 
	73 	4672 	: 	0 	inf 	; 
	73 	6713 	: 	6207.33 	3.91114 	; 
	73 	12581 	: 	0 	inf 	; 
	73 	12582 	: 	0 	113.801 	; 
	74 	134 	: 	0 	2.07412 	; 
	75 	4903 	: 	14168.7 	35.2234 	; 
	75 	11459 	: 	0 	inf 	; 
	75 	12929 	: 	0 	inf 	; 
	75 	12930 	: 	198.667 	83.9856 	; 
	76 	478 	: 	6926.67 	1.23873 	; 
	76 	8568 	: 	0 	inf 	; 
	77 	6838 	: 	6057.33 	23.7469 	; 
	77 	8749 	: 	0 	inf 	; 
	78 	441 	: 	0 	inf 	; 
	78 	990 	: 	2585.15 	26.2849 	; 
	78 	12195 	: 	0 	inf 	; 
	78 	12196 	: 	0 	453.429 	; 
	79 	5414 	: 	18625.3 	9.06334 	; 
	79 	10210 	: 	0 	inf 	; 
	80 	4308 	: 	18956.4 	16.9663 	; 
	80 	4550 	: 	0 	inf 	; 
	80 	6792 	: 	0 	inf 	; 
	80 	13913 	: 	0 	inf 	; 
	80 	13914 	: 	14.6667 	122.483 	; 
	81 	3622 	: 	0 	inf 	; 
	81 	3830 	: 	1460.67 	77.5025 	; 
	82 	5719 	: 	12180.5 	43.3788 	; 
	82 	10547 	: 	0 	inf 	; 
	82 	12475 	: 	0 	inf 	; 
	82 	12476 	: 	0 	258.07 	; 
	82 	12477 	: 	0 	inf 	; 
	82 	12478 	: 	72.6667 	180.005 	; 
	83 	5711 	: 	0 	3.04753 	; 
	83 	10529 	: 	0 	inf 	; 
	84 	4550 	: 	2653.86 	2.10848 	; 
	84 	6887 	: 	0 	inf 	; 
	85 	5598 	: 	92 	13.4828 	; 
	85 	10219 	: 	0 	inf 	; 
	86 	8195 	: 	9477.38 	8.02561 	; 
	86 	9851 	: 	0 	inf 	; 
	87 	2064 	: 	2779.33 	16.8209 	; 
	87 	6549 	: 	0 	inf 	; 
	87 	6970 	: 	0 	inf 	; 
	88 	6137 	: 	0 	inf 	; 
	88 	7701 	: 	7638.92 	10.6382 	; 
	89 	3010 	: 	0 	inf 	; 
	89 	3398 	: 	9789.21 	23.9023 	; 
	89 	4282 	: 	3713.19 	90.6159 	; 
	89 	12411 	: 	0 	inf 	; 
	89 	12412 	: 	27.3333 	65.2076 	; 
	89 	12417 	: 	0 	inf 	; 
	89 	12418 	: 	0 	85.196 	; 
	90 	4552 	: 	5415.33 	6.88561 	; 
	90 	10370 	: 	0 	inf 	; 
	91 	1886 	: 	0 	inf 	; 
	91 	8033 	: 	11443.3 	40.2923 	; 
	92 	9063 	: 	0 	inf 	; 
	92 	10752 	: 	1854.43 	24.8393 	; 
	92 	11393 	: 	8734.52 	16.9626 	; 
	93 	6672 	: 	18790 	9064.38 	; 
	93 	6743 	: 	0 	inf 	; 
	93 	14219 	: 	0 	inf 	; 
	93 	14220 	: 	1228.67 	475.393 	; 
	94 	8735 	: 	1014.67 	2.1283 	; 
	94 	9443 	: 	4461.87 	41.7923 	; 
	94 	14105 	: 	0 	inf 	; 
	94 	14106 	: 	890.667 	191.934 	; 
	95 	4074 	: 	0 	inf 	; 
	95 	7575 	: 	19855.8 	11.1018 	; 
	96 	5301 	: 	0 	inf 	; 
	96 	6497 	: 	9377.28 	13.3632 	; 
	97 	6145 	: 	0 	10.2628 	; 
	97 	6625 	: 	0 	inf 	; 
	97 	11447 	: 	0 	87.1063 	; 
	98 	3030 	: 	0 	inf 	; 
	98 	5103 	: 	11892.2 	12.6643 	; 
	98 	12457 	: 	0 	inf 	; 
	98 	12458 	: 	472 	162.037 	; 
	99 	5456 	: 	0 	inf 	; 
	99 	7460 	: 	18625.3 	68.2895 	; 
	100 	3478 	: 	20925.9 	39.0574 	; 
	100 	7655 	: 	0 	inf 	; 
	100 	13195 	: 	0 	inf 	; 
	100 	13196 	: 	197.333 	75.2624 	; 
	101 	3644 	: 	17284.5 	13.2117 	; 
	101 	6123 	: 	0 	inf 	; 
	101 	9707 	: 	0 	inf 	; 
	101 	12789 	: 	0 	inf 	; 
	101 	12790 	: 	495.333 	91.5647 	; 
	102 	550 	: 	0 	inf 	; 
	102 	552 	: 	0 	inf 	; 
	102 	10788 	: 	14308.9 	3.34061 	; 
	103 	540 	: 	15538.3 	53.2466 	; 
	103 	2729 	: 	0 	inf 	; 
	104 	1980 	: 	5058.67 	3.27648 	; 
	104 	5728 	: 	0 	inf 	; 
	105 	7231 	: 	0 	inf 	; 
	105 	10671 	: 	18963.3 	1365.39 	; 
	106 	794 	: 	0 	inf 	; 
	106 	3152 	: 	1181.33 	29.4998 	; 
	107 	2906 	: 	412 	26.3676 	; 
	107 	6129 	: 	0 	inf 	; 
	108 	2051 	: 	1189.33 	20.8593 	; 
	108 	6931 	: 	1936.67 	42.6728 	; 
	108 	9232 	: 	0 	inf 	; 
	108 	12779 	: 	0 	inf 	; 
	108 	12780 	: 	0 	117.922 	; 
	109 	1780 	: 	1384 	10.9959 	; 
	109 	9588 	: 	0 	inf 	; 
	110 	4551 	: 	636.026 	13.6189 	; 
	110 	10468 	: 	0 	inf 	; 
	110 	11967 	: 	0 	inf 	; 
	110 	11968 	: 	0 	36.2972 	; 
	111 	5761 	: 	0 	inf 	; 
	111 	10613 	: 	330.497 	3.5637 	; 
	112 	113 	: 	0 	inf 	; 
	112 	7935 	: 	9421.33 	2.89258 	; 
	113 	112 	: 	9421.33 	6.99552 	; 
	113 	9113 	: 	0 	inf 	; 
	114 	7846 	: 	0 	613.129 	; 
	114 	8717 	: 	0 	38.4138 	; 
	115 	697 	: 	0 	inf 	; 
	115 	10857 	: 	11978.7 	57.9961 	; 
	116 	503 	: 	0 	inf 	; 
	116 	3020 	: 	7400 	5.11606 	; 
	116 	12697 	: 	0 	inf 	; 
	116 	12698 	: 	0 	193.878 	; 
	117 	118 	: 	0 	16.5874 	; 
	117 	2677 	: 	0 	inf 	; 
	117 	8681 	: 	3308.67 	12.0001 	; 
	118 	117 	: 	0 	inf 	; 
	118 	793 	: 	0 	2.68352 	; 
	119 	4774 	: 	0 	inf 	; 
	119 	4996 	: 	0 	inf 	; 
	119 	11377 	: 	15340.8 	2685.43 	; 
	119 	14425 	: 	0 	inf 	; 
	119 	14426 	: 	2296.67 	38.0628 	; 
	120 	132 	: 	14591.5 	27.0162 	; 
	120 	3599 	: 	0 	inf 	; 
	120 	4927 	: 	0 	inf 	; 
	121 	6561 	: 	0 	inf 	; 
	121 	7045 	: 	10045.2 	52.8818 	; 
	122 	2353 	: 	0 	inf 	; 
	122 	8673 	: 	0 	10.814 	; 
	123 	3960 	: 	0 	inf 	; 
	123 	11417 	: 	20204.6 	96.4951 	; 
	124 	5752 	: 	0 	inf 	; 
	124 	9823 	: 	0 	16.4313 	; 
	125 	126 	: 	15802.5 	16.2115 	; 
	125 	2639 	: 	0 	inf 	; 
	125 	11771 	: 	0 	inf 	; 
	125 	11772 	: 	137.333 	197.012 	; 
	125 	11805 	: 	0 	inf 	; 
	125 	11806 	: 	9.33333 	149.653 	; 
	125 	11807 	: 	0 	inf 	; 
	125 	11808 	: 	74.6667 	139.243 	; 
	125 	11809 	: 	0 	inf 	; 
	125 	11810 	: 	70 	92.0962 	; 
	125 	11811 	: 	0 	inf 	; 
	125 	11812 	: 	8 	50.6731 	; 
	126 	125 	: 	0 	inf 	; 
	126 	1626 	: 	15965.1 	17.208 	; 
	126 	11769 	: 	0 	inf 	; 
	126 	11770 	: 	86 	253.372 	; 
	126 	11771 	: 	0 	inf 	; 
	126 	11772 	: 	7.33333 	196.927 	; 
	126 	11807 	: 	0 	inf 	; 
	126 	11808 	: 	2.66667 	140.081 	; 
	126 	11809 	: 	0 	inf 	; 
	126 	11810 	: 	2 	96.9837 	; 
	126 	11811 	: 	0 	inf 	; 
	126 	11812 	: 	2 	69.1882 	; 
	127 	3581 	: 	5027.97 	13.792 	; 
	127 	5624 	: 	0 	inf 	; 
	127 	13357 	: 	0 	inf 	; 
	127 	13358 	: 	29.3333 	224.889 	; 
	128 	4353 	: 	14800.4 	17.353 	; 
	128 	7887 	: 	0 	inf 	; 
	128 	13053 	: 	0 	inf 	; 
	128 	13054 	: 	0 	336.776 	; 
	128 	13055 	: 	0 	inf 	; 
	128 	13056 	: 	0 	121.314 	; 
	129 	2615 	: 	0 	inf 	; 
	129 	10995 	: 	9300.89 	3.05598 	; 
	130 	1785 	: 	26684.8 	259.352 	; 
	130 	3400 	: 	0 	inf 	; 
	130 	10816 	: 	0 	inf 	; 
	131 	6098 	: 	5275.33 	17.9261 	; 
	131 	6355 	: 	0 	inf 	; 
	132 	120 	: 	0 	inf 	; 
	132 	7281 	: 	14591.5 	99.6922 	; 
	133 	4275 	: 	4249.33 	8.20647 	; 
	133 	10862 	: 	11643.8 	2.46819 	; 
	133 	11097 	: 	0 	inf 	; 
	134 	74 	: 	0 	2.07412 	; 
	134 	6141 	: 	0 	inf 	; 
	134 	8077 	: 	0 	9.09537 	; 
	135 	3017 	: 	0 	inf 	; 
	135 	4442 	: 	1032.09 	26.7287 	; 
	135 	12837 	: 	0 	inf 	; 
	135 	12838 	: 	112 	211.574 	; 
	136 	1054 	: 	9302.17 	6.26398 	; 
	136 	10976 	: 	0 	inf 	; 
	137 	962 	: 	0 	inf 	; 
	137 	3461 	: 	8572.92 	12.0599 	; 
	137 	9826 	: 	0 	inf 	; 
	138 	193 	: 	16872 	88.8531 	; 
	138 	6048 	: 	0 	inf 	; 
	138 	10079 	: 	2640.35 	37.5134 	; 
	139 	3802 	: 	10800 	675.737 	; 
	139 	10917 	: 	0 	inf 	; 
	139 	12339 	: 	0 	inf 	; 
	139 	12340 	: 	142.667 	116.243 	; 
	140 	7047 	: 	0 	inf 	; 
	140 	7204 	: 	0 	inf 	; 
	140 	10473 	: 	18649.8 	21.3359 	; 
	140 	12627 	: 	0 	inf 	; 
	140 	12628 	: 	316.667 	187.805 	; 
	141 	2690 	: 	0 	inf 	; 
	141 	6104 	: 	7104.67 	37.7177 	; 
	142 	3714 	: 	9272.03 	2.78756 	; 
	142 	8743 	: 	0 	inf 	; 
	142 	13993 	: 	0 	inf 	; 
	142 	13994 	: 	69.3333 	176.254 	; 
	142 	13995 	: 	0 	inf 	; 
	142 	13996 	: 	6 	64.5946 	; 
	142 	13997 	: 	0 	inf 	; 
	142 	13998 	: 	0.666667 	130.858 	; 
	143 	1057 	: 	7637.33 	5.39935 	; 
	143 	7839 	: 	0 	inf 	; 
	144 	6196 	: 	0 	9.44354 	; 
	144 	11132 	: 	0 	3.8923 	; 
	145 	3748 	: 	0 	inf 	; 
	145 	8418 	: 	4634.5 	1.62745 	; 
	146 	5142 	: 	2314.67 	15.6994 	; 
	146 	5274 	: 	0 	inf 	; 
	147 	3041 	: 	0 	inf 	; 
	147 	8286 	: 	0 	inf 	; 
	147 	9148 	: 	19426 	975.414 	; 
	147 	14329 	: 	0 	inf 	; 
	147 	14330 	: 	0 	228.899 	; 
	148 	4371 	: 	0 	inf 	; 
	148 	6486 	: 	8213.53 	9.68545 	; 
	149 	3783 	: 	0 	inf 	; 
	149 	5697 	: 	1671.83 	4.36328 	; 
	150 	542 	: 	0 	inf 	; 
	150 	5090 	: 	7171.83 	21.8206 	; 
	150 	7388 	: 	0 	inf 	; 
	151 	155 	: 	0 	inf 	; 
	151 	9532 	: 	0 	22.2484 	; 
	152 	2977 	: 	0 	inf 	; 
	152 	7654 	: 	0 	inf 	; 
	152 	7687 	: 	0 	23.0826 	; 
	153 	3146 	: 	520.667 	1.18577 	; 
	153 	7548 	: 	0 	inf 	; 
	153 	10357 	: 	0 	inf 	; 
	154 	3673 	: 	0 	inf 	; 
	154 	8658 	: 	14527.4 	5.29487 	; 
	154 	12659 	: 	0 	inf 	; 
	154 	12660 	: 	0 	177.263 	; 
	155 	151 	: 	0 	8.32494 	; 
	155 	7436 	: 	0 	inf 	; 
	156 	2147 	: 	6116 	4.99329 	; 
	156 	7133 	: 	0 	inf 	; 
	156 	12437 	: 	0 	inf 	; 
	156 	12438 	: 	539.333 	198.589 	; 
	157 	9355 	: 	0 	inf 	; 
	157 	9472 	: 	3199.33 	16.9564 	; 
	158 	448 	: 	0 	inf 	; 
	158 	4189 	: 	92 	12.2256 	; 
	159 	1863 	: 	10799.1 	2.79905 	; 
	159 	9793 	: 	0 	inf 	; 
	159 	13433 	: 	0 	inf 	; 
	159 	13434 	: 	314.667 	47.2137 	; 
	159 	13435 	: 	0 	inf 	; 
	159 	13436 	: 	144 	128.16 	; 
	160 	4584 	: 	9707.33 	755.586 	; 
	160 	4585 	: 	12971.9 	4.49293 	; 
	160 	6041 	: 	0 	inf 	; 
	161 	163 	: 	11290.3 	3.96389 	; 
	161 	8137 	: 	3619.33 	11.8359 	; 
	161 	8906 	: 	0 	inf 	; 
	162 	3927 	: 	0 	inf 	; 
	162 	4757 	: 	6724 	5.2118 	; 
	163 	161 	: 	0 	inf 	; 
	163 	8137 	: 	0 	inf 	; 
	163 	10687 	: 	11888.3 	5.0808 	; 
	164 	167 	: 	0 	inf 	; 
	164 	1418 	: 	0 	31.7385 	; 
	165 	873 	: 	0 	inf 	; 
	165 	2508 	: 	20109.3 	14.8277 	; 
	165 	13871 	: 	0 	inf 	; 
	165 	13872 	: 	0 	132.374 	; 
	166 	951 	: 	0 	inf 	; 
	166 	5411 	: 	326 	28.111 	; 
	167 	164 	: 	0 	1.63556 	; 
	167 	6177 	: 	0 	inf 	; 
	168 	575 	: 	8167.33 	3.76376 	; 
	168 	3181 	: 	0 	3.05318 	; 
	168 	9553 	: 	0 	inf 	; 
	168 	12465 	: 	0 	inf 	; 
	168 	12466 	: 	0 	185.332 	; 
	169 	253 	: 	0 	inf 	; 
	169 	11444 	: 	7416.91 	23.0367 	; 
	170 	951 	: 	326 	7.58261 	; 
	170 	10207 	: 	0 	inf 	; 
	171 	1991 	: 	0 	inf 	; 
	171 	2325 	: 	6626.67 	5.73662 	; 
	171 	7184 	: 	0 	inf 	; 
	172 	6178 	: 	6178.67 	15.944 	; 
	172 	9196 	: 	0 	inf 	; 
	172 	13287 	: 	0 	inf 	; 
	172 	13288 	: 	208.667 	113.68 	; 
	172 	13289 	: 	0 	inf 	; 
	172 	13290 	: 	18 	231.645 	; 
	172 	13295 	: 	0 	inf 	; 
	172 	13296 	: 	0 	173.438 	; 
	173 	1450 	: 	0 	inf 	; 
	173 	9843 	: 	3695.33 	28.854 	; 
	173 	12623 	: 	0 	inf 	; 
	173 	12624 	: 	403.333 	159.302 	; 
	174 	7053 	: 	2457.82 	1.56404 	; 
	174 	8635 	: 	0 	inf 	; 
	175 	9451 	: 	1261.32 	3.73908 	; 
	175 	10872 	: 	0 	inf 	; 
	176 	194 	: 	10175 	152.174 	; 
	176 	2286 	: 	0 	inf 	; 
	176 	13539 	: 	0 	inf 	; 
	176 	13540 	: 	117.333 	144.723 	; 
	177 	4907 	: 	2462.12 	7.32421 	; 
	177 	5640 	: 	0 	inf 	; 
	178 	6180 	: 	4350.02 	16.6572 	; 
	178 	10497 	: 	0 	inf 	; 
	179 	3541 	: 	10364.1 	14.2145 	; 
	179 	8384 	: 	0 	inf 	; 
	179 	8476 	: 	0 	inf 	; 
	180 	8 	: 	642 	25.1273 	; 
	180 	5455 	: 	8631.83 	4.45586 	; 
	180 	5623 	: 	0 	inf 	; 
	181 	1322 	: 	0 	inf 	; 
	181 	3545 	: 	0 	4.78932 	; 
	182 	3662 	: 	9077.36 	122.223 	; 
	182 	9810 	: 	0 	inf 	; 
	182 	12017 	: 	0 	inf 	; 
	182 	12018 	: 	0 	63.2468 	; 
	183 	6829 	: 	4121.85 	39.4325 	; 
	183 	9076 	: 	0 	inf 	; 
	184 	4556 	: 	0 	inf 	; 
	184 	7111 	: 	16281.6 	34.2596 	; 
	184 	13253 	: 	0 	inf 	; 
	184 	13254 	: 	10.6667 	186.861 	; 
	184 	13255 	: 	0 	inf 	; 
	184 	13256 	: 	13.3333 	74.1214 	; 
	184 	13263 	: 	0 	inf 	; 
	184 	13264 	: 	405.333 	120.432 	; 
	185 	2850 	: 	19189.2 	165.261 	; 
	185 	7430 	: 	0 	inf 	; 
	185 	10088 	: 	0 	inf 	; 
	185 	12095 	: 	0 	inf 	; 
	185 	12096 	: 	120.667 	98.7285 	; 
	186 	52 	: 	0 	inf 	; 
	186 	2576 	: 	20048.7 	7.45704 	; 
	186 	3359 	: 	0 	inf 	; 
	187 	5246 	: 	0 	inf 	; 
	187 	7005 	: 	0 	75.9099 	; 
	188 	3175 	: 	1460.67 	70.0392 	; 
	188 	9758 	: 	0 	inf 	; 
	189 	8743 	: 	1512 	14.4605 	; 
	189 	10015 	: 	0 	inf 	; 
	189 	13993 	: 	0 	inf 	; 
	189 	13994 	: 	525.333 	170.263 	; 
	190 	6672 	: 	0 	inf 	; 
	190 	7312 	: 	18963.3 	5152.43 	; 
	191 	6295 	: 	6926.67 	122.636 	; 
	191 	8421 	: 	0 	inf 	; 
	192 	6614 	: 	0 	inf 	; 
	192 	6615 	: 	7236.31 	3.08616 	; 
	193 	138 	: 	0 	inf 	; 
	193 	6595 	: 	0 	inf 	; 
	193 	7136 	: 	19538.3 	97.2212 	; 
	193 	12643 	: 	0 	inf 	; 
	193 	12644 	: 	456 	44.7037 	; 
	194 	176 	: 	0 	inf 	; 
	194 	1880 	: 	9557.03 	38.5841 	; 
	194 	13547 	: 	0 	inf 	; 
	194 	13548 	: 	618 	75.6768 	; 
	195 	610 	: 	0 	inf 	; 
	195 	9943 	: 	10941.4 	41.9342 	; 
	195 	10514 	: 	945.333 	26.2224 	; 
	196 	4316 	: 	0 	inf 	; 
	196 	8263 	: 	0 	1.11285 	; 
	197 	1978 	: 	237.33 	5.774 	; 
	197 	5698 	: 	0 	inf 	; 
	198 	620 	: 	21795.7 	11.5362 	; 
	198 	9024 	: 	0 	inf 	; 
	198 	12679 	: 	0 	inf 	; 
	198 	12680 	: 	0 	172.138 	; 
	198 	12693 	: 	0 	inf 	; 
	198 	12694 	: 	167.333 	107.764 	; 
	199 	1882 	: 	10898.6 	5.66163 	; 
	199 	6169 	: 	0 	inf 	; 
	200 	3524 	: 	3812.54 	36.7815 	; 
	200 	4078 	: 	0 	inf 	; 
	201 	1820 	: 	0 	16.8493 	; 
	201 	8402 	: 	0 	4.97018 	; 
	201 	9666 	: 	0 	3.94245 	; 
	202 	3908 	: 	0 	0.263094 	; 
	202 	9801 	: 	0 	inf 	; 
	203 	8658 	: 	0 	inf 	; 
	203 	11510 	: 	13356.7 	2.37629 	; 
	203 	12503 	: 	0 	inf 	; 
	203 	12504 	: 	1864.67 	49.7128 	; 
	204 	2316 	: 	2780.03 	1.31033 	; 
	204 	6211 	: 	0 	inf 	; 
	205 	5922 	: 	0 	inf 	; 
	205 	6575 	: 	0 	inf 	; 
	205 	11352 	: 	1208 	4.6989 	; 
	206 	289 	: 	0 	inf 	; 
	206 	8550 	: 	13322.7 	11.4567 	; 
	206 	12915 	: 	0 	inf 	; 
	206 	12916 	: 	206.667 	73.0861 	; 
	207 	9151 	: 	0 	inf 	; 
	207 	10877 	: 	25292.7 	47.852 	; 
	207 	13555 	: 	0 	inf 	; 
	207 	13556 	: 	18 	198.985 	; 
	208 	7714 	: 	0 	inf 	; 
	208 	9309 	: 	5874.89 	3.33685 	; 
	208 	12573 	: 	0 	inf 	; 
	208 	12574 	: 	242 	129.608 	; 
	208 	12577 	: 	0 	inf 	; 
	208 	12578 	: 	1125.33 	77.7302 	; 
	209 	1821 	: 	0 	inf 	; 
	209 	5270 	: 	24996 	94.6379 	; 
	209 	9386 	: 	0 	inf 	; 
	209 	12671 	: 	0 	inf 	; 
	209 	12672 	: 	16.6667 	212.307 	; 
	209 	12757 	: 	0 	inf 	; 
	209 	12758 	: 	511.333 	46.1526 	; 
	209 	12765 	: 	0 	inf 	; 
	209 	12766 	: 	415.066 	158.815 	; 
	210 	1688 	: 	2835.33 	4.56876 	; 
	210 	4654 	: 	0 	inf 	; 
	211 	6512 	: 	0 	inf 	; 
	211 	9271 	: 	17912.3 	102.915 	; 
	211 	12071 	: 	0 	inf 	; 
	211 	12072 	: 	215.333 	118.784 	; 
	212 	6605 	: 	0 	inf 	; 
	212 	7275 	: 	7429.59 	1371.68 	; 
	212 	7920 	: 	19581.1 	55.3732 	; 
	213 	1584 	: 	0 	inf 	; 
	213 	4400 	: 	16423.9 	105.497 	; 
	214 	7846 	: 	0 	22.4148 	; 
	214 	11219 	: 	0 	224.262 	; 
	215 	2255 	: 	0 	inf 	; 
	215 	9703 	: 	202.667 	17.9631 	; 
	216 	425 	: 	0 	inf 	; 
	216 	7522 	: 	25782.9 	41.5967 	; 
	217 	2465 	: 	1982 	9.75628 	; 
	217 	3459 	: 	0 	inf 	; 
	217 	8114 	: 	3488 	24.9877 	; 
	217 	12675 	: 	0 	inf 	; 
	217 	12676 	: 	22.6667 	42.2674 	; 
	217 	12755 	: 	0 	inf 	; 
	217 	12756 	: 	120 	51.2959 	; 
	218 	2812 	: 	6196 	21.6964 	; 
	218 	3917 	: 	0 	inf 	; 
	218 	14143 	: 	0 	inf 	; 
	218 	14144 	: 	0 	620.24 	; 
	219 	2194 	: 	0 	inf 	; 
	219 	6725 	: 	0 	15.5494 	; 
	219 	12255 	: 	0 	inf 	; 
	219 	12256 	: 	264.667 	497.94 	; 
	219 	12261 	: 	0 	inf 	; 
	219 	12262 	: 	36 	267.954 	; 
	220 	1826 	: 	1460.67 	1.55102 	; 
	220 	4788 	: 	0 	inf 	; 
	221 	222 	: 	2086.12 	9.30448 	; 
	221 	6641 	: 	0 	inf 	; 
	222 	221 	: 	0 	inf 	; 
	222 	7593 	: 	2086.12 	29.3187 	; 
	223 	2299 	: 	11557.1 	6.49444 	; 
	223 	3962 	: 	0 	inf 	; 
	224 	5005 	: 	5685.33 	5.38374 	; 
	224 	10483 	: 	0 	inf 	; 
	224 	12509 	: 	0 	inf 	; 
	224 	12510 	: 	0 	79.0458 	; 
	225 	5423 	: 	1557.78 	20.9861 	; 
	225 	7955 	: 	10072.8 	28.6918 	; 
	225 	8267 	: 	0 	inf 	; 
	225 	12395 	: 	0 	inf 	; 
	225 	12396 	: 	0 	177.747 	; 
	226 	546 	: 	14904.8 	54.4137 	; 
	226 	6546 	: 	0 	inf 	; 
	226 	13283 	: 	0 	inf 	; 
	226 	13284 	: 	275.333 	135.624 	; 
	227 	5867 	: 	0 	inf 	; 
	227 	10928 	: 	3194.7 	13.3712 	; 
	227 	12463 	: 	0 	inf 	; 
	227 	12464 	: 	30.6667 	116.12 	; 
	228 	1283 	: 	0 	inf 	; 
	228 	2912 	: 	0 	4.09289 	; 
	229 	230 	: 	0 	inf 	; 
	229 	2168 	: 	0 	inf 	; 
	229 	9478 	: 	10912.4 	38.8471 	; 
	230 	229 	: 	7386.45 	6.74017 	; 
	230 	2637 	: 	0 	inf 	; 
	231 	1275 	: 	0 	inf 	; 
	231 	4179 	: 	7355.71 	4.19309 	; 
	231 	13815 	: 	0 	inf 	; 
	231 	13816 	: 	327.333 	148.58 	; 
	232 	2427 	: 	0 	inf 	; 
	232 	3732 	: 	0 	inf 	; 
	232 	4528 	: 	2.07478e-12 	22.8238 	; 
	233 	5553 	: 	1363.47 	22.7623 	; 
	233 	10888 	: 	4393.86 	29.0925 	; 
	233 	11130 	: 	0 	inf 	; 
	234 	2080 	: 	1064.2 	4.45433 	; 
	234 	2463 	: 	0 	inf 	; 
	234 	8099 	: 	2245.99 	8.03211 	; 
	235 	7983 	: 	0 	inf 	; 
	235 	8693 	: 	353.067 	20.6882 	; 
	236 	237 	: 	0 	inf 	; 
	236 	6167 	: 	5131.33 	183.414 	; 
	236 	6230 	: 	5019.23 	155.001 	; 
	237 	236 	: 	10150.6 	602.939 	; 
	237 	4395 	: 	0 	inf 	; 
	237 	6166 	: 	0 	inf 	; 
	238 	7131 	: 	0 	inf 	; 
	238 	9554 	: 	7305.23 	11.0511 	; 
	239 	2332 	: 	1870.67 	17.9816 	; 
	239 	8065 	: 	0 	inf 	; 
	240 	558 	: 	3460.19 	2.73159 	; 
	240 	9129 	: 	12826.3 	32.6553 	; 
	240 	10590 	: 	0 	inf 	; 
	240 	12227 	: 	0 	inf 	; 
	240 	12228 	: 	56.6667 	230.166 	; 
	240 	12231 	: 	0 	inf 	; 
	240 	12232 	: 	278 	85.7242 	; 
	241 	618 	: 	0 	inf 	; 
	241 	3994 	: 	0 	inf 	; 
	241 	6003 	: 	2779.33 	27.2391 	; 
	242 	3296 	: 	0 	inf 	; 
	242 	8328 	: 	1384.06 	17.5269 	; 
	242 	12825 	: 	0 	inf 	; 
	242 	12826 	: 	494 	189.528 	; 
	242 	12827 	: 	0 	inf 	; 
	242 	12828 	: 	11.3333 	429.83 	; 
	242 	12833 	: 	0 	inf 	; 
	242 	12834 	: 	40 	123.722 	; 
	243 	3837 	: 	0 	inf 	; 
	243 	5366 	: 	0 	1.87351 	; 
	244 	2024 	: 	0 	inf 	; 
	244 	6896 	: 	3291.01 	48.6789 	; 
	244 	12115 	: 	0 	inf 	; 
	244 	12116 	: 	0 	214.169 	; 
	244 	12117 	: 	0 	inf 	; 
	244 	12118 	: 	1.33333 	226.737 	; 
	244 	12121 	: 	0 	inf 	; 
	244 	12122 	: 	780 	29.6443 	; 
	244 	12123 	: 	0 	inf 	; 
	244 	12124 	: 	0 	142.106 	; 
	244 	12143 	: 	0 	inf 	; 
	244 	12144 	: 	59.3333 	238.871 	; 
	245 	8669 	: 	694.667 	6.04339 	; 
	245 	9442 	: 	0 	inf 	; 
	245 	12537 	: 	0 	inf 	; 
	245 	12538 	: 	0 	71.5772 	; 
	245 	12555 	: 	0 	inf 	; 
	245 	12556 	: 	0 	64.5069 	; 
	246 	3358 	: 	0 	inf 	; 
	246 	3750 	: 	18788.7 	26.9837 	; 
	246 	13875 	: 	0 	inf 	; 
	246 	13876 	: 	0 	222.841 	; 
	246 	13887 	: 	0 	inf 	; 
	246 	13888 	: 	415.333 	651.198 	; 
	247 	636 	: 	0 	inf 	; 
	247 	6247 	: 	0 	inf 	; 
	247 	11498 	: 	9604.67 	579.591 	; 
	248 	7059 	: 	6926.67 	391.624 	; 
	248 	10839 	: 	0 	inf 	; 
	249 	250 	: 	0 	inf 	; 
	249 	7333 	: 	21722 	27.3627 	; 
	249 	13183 	: 	0 	inf 	; 
	249 	13184 	: 	268.667 	201.358 	; 
	250 	249 	: 	21990.7 	8.65566 	; 
	250 	10965 	: 	0 	inf 	; 
	250 	13161 	: 	0 	inf 	; 
	250 	13162 	: 	361.333 	258.672 	; 
	250 	13183 	: 	0 	inf 	; 
	250 	13184 	: 	1104 	205.156 	; 
	251 	833 	: 	20727.4 	530.884 	; 
	251 	6937 	: 	0 	inf 	; 
	251 	13531 	: 	0 	inf 	; 
	251 	13532 	: 	44.6667 	14.7089 	; 
	251 	13537 	: 	0 	inf 	; 
	251 	13538 	: 	10 	91.3721 	; 
	251 	13549 	: 	0 	inf 	; 
	251 	13550 	: 	4 	140.765 	; 
	252 	3956 	: 	0 	inf 	; 
	252 	7737 	: 	5972 	2.3268 	; 
	253 	169 	: 	7416.91 	2.71507 	; 
	253 	10824 	: 	0 	inf 	; 
	254 	256 	: 	0 	inf 	; 
	254 	5854 	: 	8170 	1.95365 	; 
	254 	13015 	: 	0 	inf 	; 
	254 	13016 	: 	460.667 	213.479 	; 
	255 	3793 	: 	0 	inf 	; 
	255 	7383 	: 	3282 	27.7072 	; 
	256 	254 	: 	8630.67 	8.86825 	; 
	256 	787 	: 	0 	inf 	; 
	257 	1526 	: 	0 	inf 	; 
	257 	3762 	: 	19049.7 	4.44119 	; 
	257 	13915 	: 	0 	inf 	; 
	257 	13916 	: 	701.333 	91.4649 	; 
	258 	3930 	: 	1167.33 	64.7903 	; 
	258 	7806 	: 	2101.33 	36.4463 	; 
	258 	12161 	: 	0 	inf 	; 
	258 	12162 	: 	0 	541.45 	; 
	259 	2269 	: 	0 	inf 	; 
	259 	11566 	: 	14283.2 	1.9555 	; 
	260 	457 	: 	0 	inf 	; 
	260 	7069 	: 	16722.3 	86.9569 	; 
	260 	13045 	: 	0 	inf 	; 
	260 	13046 	: 	1119.33 	107.418 	; 
	261 	4028 	: 	0 	inf 	; 
	261 	8829 	: 	10927 	29.3795 	; 
	262 	5463 	: 	19228.4 	134.829 	; 
	262 	5928 	: 	0 	inf 	; 
	263 	5864 	: 	0 	inf 	; 
	263 	10764 	: 	2168.85 	9.26919 	; 
	263 	13699 	: 	0 	inf 	; 
	263 	13700 	: 	0 	198.139 	; 
	263 	13705 	: 	0 	inf 	; 
	263 	13706 	: 	0 	263.911 	; 
	264 	8274 	: 	2748.85 	45.162 	; 
	264 	10764 	: 	0 	inf 	; 
	264 	13685 	: 	0 	inf 	; 
	264 	13686 	: 	331.333 	212.911 	; 
	264 	13697 	: 	0 	inf 	; 
	264 	13698 	: 	1029.33 	101.71 	; 
	264 	13699 	: 	0 	inf 	; 
	264 	13700 	: 	452.667 	161.899 	; 
	264 	13705 	: 	0 	inf 	; 
	264 	13706 	: 	260.667 	255.825 	; 
	265 	3892 	: 	0 	inf 	; 
	265 	8025 	: 	5716.67 	7.40541 	; 
	266 	4652 	: 	0 	inf 	; 
	266 	10223 	: 	9980.56 	60.6116 	; 
	267 	4523 	: 	15060.5 	95.8454 	; 
	267 	5719 	: 	0 	inf 	; 
	267 	12349 	: 	0 	inf 	; 
	267 	12350 	: 	428 	88.0706 	; 
	268 	4113 	: 	15785.9 	1.83647 	; 
	268 	4116 	: 	0 	inf 	; 
	268 	13065 	: 	0 	inf 	; 
	268 	13066 	: 	127.333 	111.481 	; 
	268 	13069 	: 	0 	inf 	; 
	268 	13070 	: 	28 	94.6453 	; 
	269 	7680 	: 	0 	inf 	; 
	269 	7828 	: 	3308.67 	2.87574 	; 
	270 	1639 	: 	0 	inf 	; 
	270 	3924 	: 	0 	36.3676 	; 
	270 	8947 	: 	0 	3.06464 	; 
	271 	5713 	: 	12974.7 	121.589 	; 
	271 	6276 	: 	0 	inf 	; 
	272 	3818 	: 	0 	inf 	; 
	272 	8727 	: 	10483.4 	2.81022 	; 
	273 	1692 	: 	9982.03 	23.4182 	; 
	273 	8577 	: 	0 	inf 	; 
	273 	11757 	: 	0 	inf 	; 
	273 	11758 	: 	12 	428.323 	; 
	273 	11759 	: 	0 	inf 	; 
	273 	11760 	: 	2.66667 	487.048 	; 
	273 	11761 	: 	0 	inf 	; 
	273 	11762 	: 	7.33333 	388.285 	; 
	273 	11763 	: 	0 	inf 	; 
	273 	11764 	: 	4 	323.823 	; 
	273 	11829 	: 	0 	inf 	; 
	273 	11830 	: 	6.66667 	259.406 	; 
	273 	11831 	: 	0 	inf 	; 
	273 	11832 	: 	28.6667 	171.314 	; 
	273 	11833 	: 	0 	inf 	; 
	273 	11834 	: 	152 	176.046 	; 
	273 	11837 	: 	0 	inf 	; 
	273 	11838 	: 	0 	81.2588 	; 
	273 	11839 	: 	0 	inf 	; 
	273 	11840 	: 	31.3333 	56.4256 	; 
	274 	349 	: 	0 	36.2941 	; 
	274 	5277 	: 	0 	inf 	; 
	274 	9809 	: 	0 	inf 	; 
	275 	6857 	: 	0 	inf 	; 
	275 	9430 	: 	12697.7 	7.60984 	; 
	276 	4246 	: 	1261.86 	5.01781 	; 
	276 	11117 	: 	0 	inf 	; 
	276 	13187 	: 	0 	inf 	; 
	276 	13188 	: 	610.667 	76.8519 	; 
	276 	13203 	: 	0 	inf 	; 
	276 	13204 	: 	290 	81.1396 	; 
	277 	1717 	: 	0 	inf 	; 
	277 	6601 	: 	0 	29.8285 	; 
	278 	3808 	: 	2604.49 	27.6949 	; 
	278 	6273 	: 	0 	inf 	; 
	278 	12189 	: 	0 	inf 	; 
	278 	12190 	: 	0 	177.151 	; 
	278 	12191 	: 	0 	inf 	; 
	278 	12192 	: 	0 	41.255 	; 
	279 	388 	: 	3308.67 	2.05386 	; 
	279 	9169 	: 	0 	inf 	; 
	280 	385 	: 	0 	inf 	; 
	280 	1499 	: 	0 	11.2757 	; 
	281 	4156 	: 	9377.28 	29.5271 	; 
	281 	9935 	: 	0 	inf 	; 
	282 	4834 	: 	0 	14.0183 	; 
	282 	9944 	: 	0 	inf 	; 
	283 	6833 	: 	0 	inf 	; 
	283 	7484 	: 	12741.8 	10.5699 	; 
	283 	12325 	: 	0 	inf 	; 
	283 	12326 	: 	20.6667 	63.3298 	; 
	283 	12371 	: 	0 	inf 	; 
	283 	12372 	: 	74.6667 	76.2574 	; 
	284 	702 	: 	0 	inf 	; 
	284 	9067 	: 	9618.67 	46.0737 	; 
	285 	8692 	: 	2565.26 	5.54721 	; 
	285 	10806 	: 	0 	inf 	; 
	286 	4077 	: 	0 	inf 	; 
	286 	7810 	: 	0 	inf 	; 
	286 	9076 	: 	4121.85 	69.414 	; 
	287 	878 	: 	15712 	825.895 	; 
	287 	3050 	: 	0 	inf 	; 
	287 	14251 	: 	0 	inf 	; 
	287 	14252 	: 	0 	571.924 	; 
	287 	14259 	: 	0 	inf 	; 
	287 	14260 	: 	0 	258.827 	; 
	288 	1673 	: 	4418.53 	34.8317 	; 
	288 	3277 	: 	0 	inf 	; 
	289 	206 	: 	13529.3 	29.4363 	; 
	289 	5353 	: 	0 	inf 	; 
	290 	2567 	: 	0 	50.5168 	; 
	290 	11548 	: 	0 	inf 	; 
	291 	5693 	: 	0 	inf 	; 
	291 	9866 	: 	0 	inf 	; 
	291 	10630 	: 	0 	11.4329 	; 
	292 	6307 	: 	15315.5 	5.60657 	; 
	292 	11398 	: 	0 	inf 	; 
	293 	4226 	: 	3817.33 	3.10493 	; 
	293 	5534 	: 	4313.33 	4.49664 	; 
	293 	11029 	: 	0 	inf 	; 
	294 	3496 	: 	12619.6 	10.5993 	; 
	294 	8203 	: 	0 	inf 	; 
	295 	8505 	: 	0 	34.9013 	; 
	295 	9090 	: 	0 	inf 	; 
	296 	6478 	: 	0 	inf 	; 
	296 	10800 	: 	0 	2.26799 	; 
	297 	3107 	: 	0 	inf 	; 